<?xml version="1.0" encoding="iso-8859-1"?>
<!--
<ReadMe>

This XML can be imported in Altium Designer 14 using WEBENCH Altium Connector Extension and simulated using WEBENCH Simulation Engine.
The WEBENCH Altium Connector provides an interface to the Texas Instruments WEBENCH Designer Tools as well as to open WEBENCH exported Designs directly from inside Altium Designer.
It also includes the advanced WEBENCH Simulation Engine which can be used for offline circuit simulations.
You will need a activation key from TI to be able to use the WEBENCH Simulation Engine.
You can download the WEBENCH extension from Altium Designer 14 Extensions.

Press Release:
http://www.altium.com/en/altium/press-center/press-releases/altium-designer-connects-ti%E2%80%99s-webench%C2%AE-power-supply-tools-fast

How to use:
http://blog.live.altium.com/#Blogs/ti-webench-release

Connector Details
http://techdocs.altium.com/display/ATPE/WEBENCH+Altium+Connector

User Manual:
http://techdocs.altium.com/sites/default/files/wiki_attachments/235782/WEBENCH_Altium_Connector_User_Guide_v1.2.pdf

</ReadMe>
-->
<schematic>
  <circuit>
    <text id="T_123456" position="400,-148" fontname="Times New Roman" fontsize="27" bold="0" color="#294901">
      <![CDATA[LM5116 Startup Simulation
(Exported from WEBENCH® Designer)]]>
    </text>
    <text id="T_123456" position="945,-148" fontname="Arial" fontsize="13" bold="1" italic="1" color="#278190" border="1">
      <![CDATA[Title :    LM5116MH/NOPB 24V-100V to 12.00V @ 3A
-------------------------------------------------------------------------
WEBENCH® User ID                      :       6449550
WEBENCH® Design ID                  :       6
Date of WEBENCH® Export           :       20-Mar-2022
Time of WEBENCH® Export          :       5:57:50 PM
WEBENCH® Export Tool Version :       E1.67-X2.01]]>
    </text>
    <component type="Icout" typeid="34" position="2600,680" mirrored="0" nodematch="0" macrotype="2" orientation="0">
      <parameter idx="0" encrypted="0">
        <![CDATA[***********************************
*     Created by WB Importer      *
***********************************
.SUBCKT Icout 1 2 
V_Iprobe 1 2 0.0
.ENDS
]]>
      </parameter>
      <parameter idx="1" name="VALUE" value="0"/>
      <image>
        <hotzone points="6,-30,-6,30"/>
        <shape type="line" width="Hair" color="#0000ff" points="0,-30,0,30"/>
        <shape type="line" width="1" color="#0000ff" points="4,-6,-4,-6"/>
        <shape type="line" width="1" color="#0000ff" points="-4,-6,0,4"/>
        <shape type="line" width="1" color="#0000ff" points="0,4,4,-6"/>
        <pin position="0,-30" dir="0" length="0" text="1"/>
        <pin position="0,30" dir="0" length="0" text="2"/>
        <label text="Icout" position="2600,680" textroot=" " orientation="0" color="#228822"/>
      </image>
    </component>
    <component type="Cout" typeid="57" position="2600,890" mirrored="0" nodematch="0" macrotype="2" orientation="0">
      <parameter idx="0" encrypted="0">
        <![CDATA[
***********************************
*     Created by WB Importer      *
***********************************
.SUBCKT LM5116_BUCK_BLOCK_Cout_WB_CAP_CERAMIC 2 4
*FAMILY = ANALOG
*FAMILY = ANALOG
R1 2 3 0.00205
C1 3 4 3.7E-6 IC=0.0
R3 5 4 5; free space reduced by sqrt(dielectric constant)
R2 2 4 2.702702702702703E8
R4 3 26 455555.5555555556
R6 3 7 455.5555555555556
C5 7 1 1.11E-7 IC=0.0
R7 3 10 45.555555555555564
C6 10 1 1.11E-7 IC=0.0
R8 3 13 4.555555555555556
C7 13 1 1.11E-7 IC=0.0
C2 26 1 1.11E-7 IC=0.0
R9 3 28 45555.55555555556
C3 28 1 1.11E-7 IC=0.0
R10 3 29 4555.555555555557
C4 29 1 1.11E-7 IC=0.0
L8 1 5 15p
R24 1 5 0.006150000000000001
L12 5 4 1n
.ENDS]]>
      </parameter>
      <image>
        <hotzone points="-24,60,24,-60"/>
        <shape type="line" width="Hair" color="#0000ff" points="0,-60,0,-40"/>
        <shape type="line" width="Hair" color="#0000ff" points="0,60,0,40"/>
        <shape type="line" width="1" color="#0000ff" points="24,-6,-24,-6"/>
        <shape type="line" width="1" color="#0000ff" points="0,40,0,6"/>
        <shape type="line" width="1" color="#0000ff" points="0,-6,0,-40"/>
        <shape type="line" width="1" color="#0000ff" points="24,6,-24,6"/>
        <legend text="22 uF" position="8,18" orientation="0" fontname="Arial" fontsize="12" bold="0" italic="0" color="#229922"/>
        <legend text="2.05 mOhm" position="8,32" orientation="0" fontname="Arial" fontsize="12" bold="0" italic="0" color="#229922"/>
        <legend text="" position="8,48" orientation="0" fontname="Arial" fontsize="12" bold="0" italic="0" color="#229922"/>
        <pin position="0,60" dir="0" length="0" text="4"/>
        <pin position="0,-60" dir="0" length="0" text="2"/>
        <label text="Cout" position="2606,868" textroot=" " orientation="0" color="#228822"/>
      </image>
    </component>
    <component type="Ccomp2" mirrored="0" typeid="57" nodematch="0" macrotype="2" position="1600,1030" orientation="0">
      <parameter idx="0" encrypted="0">
        <![CDATA[
***********************************
*     Created by WB Importer      *
***********************************
.subckt LM5116_BUCK_BLOCK_WB_LM5116_BUCK_BLOCK_Ccomp2 8 5
Ccomp2 8 5 3.9E-12

.ends]]>
      </parameter>
      <image>
        <hotzone points="60,24,-60,-24"/>
        <shape type="line" width="Hair" color="#0000ff" points="-60,0,-40,0"/>
        <shape type="line" width="Hair" color="#0000ff" points="60,0,40,0"/>
        <shape type="line" width="1" color="#0000ff" points="-6,-24,-6,24"/>
        <shape type="line" width="1" color="#0000ff" points="40,0,6,0"/>
        <shape type="line" width="1" color="#0000ff" points="-6,0,-40,0"/>
        <shape type="line" width="1" color="#0000ff" points="6,-24,6,24"/>
        <legend text="3.9 pF" position="18,10" orientation="0" fontname="Arial" fontsize="12" bold="0" italic="0" color="#229922"/>
        <legend text="1 mOhm" position="18,26" orientation="0" fontname="Arial" fontsize="12" bold="0" italic="0" color="#229922"/>
        <legend text="" position="18,40" orientation="0" fontname="Arial" fontsize="12" bold="0" italic="0" color="#229922"/>
        <pin position="60,0" dir="0" length="0" text="5"/>
        <pin position="-60,0" dir="0" length="0" text="8"/>
        <label text="Ccomp2" position="1610,1012" textroot=" " orientation="0" color="#228822"/>
      </image>
    </component>
    <component type="Rcomp" mirrored="0" typeid="57" nodematch="0" macrotype="2" position="1560,1190" orientation="0">
      <parameter idx="0" encrypted="0">
        <![CDATA[
***********************************
*     Created by WB Importer      *
***********************************
.subckt LM5116_BUCK_BLOCK_WB_LM5116_BUCK_BLOCK_Rcomp 10 8
Rcomp 10 8 66500.0

.ends]]>
      </parameter>
      <image>
        <hotzone points="-60,-10,60,10"/>
        <shape type="line" width="1" color="#0000ff" points="-60,0,-40,0"/>
        <shape type="line" width="1" color="#0000ff" points="-40,0,-30,-10"/>
        <shape type="line" width="1" color="#0000ff" points="-30,-10,-10,10"/>
        <shape type="line" width="1" color="#0000ff" points="-10,10,10,-10"/>
        <shape type="line" width="1" color="#0000ff" points="10,-10,30,10"/>
        <shape type="line" width="1" color="#0000ff" points="30,10,40,0"/>
        <shape type="line" width="1" color="#0000ff" points="40,0,60,0"/>
        <legend text="66.5 kOhm" position="-36,20" orientation="0" fontname="Arial" fontsize="12" bold="0" italic="0" color="#229922"/>
        <pin position="-60,0" dir="0" length="0" text="8"/>
        <pin position="60,0" dir="0" length="0" text="10"/>
        <label text="Rcomp" position="1530,1166" textroot=" " orientation="0" color="#228822"/>
      </image>
    </component>
    <component type="Rt" mirrored="0" typeid="57" nodematch="0" macrotype="2" position="880,880" orientation="0">
      <parameter idx="0" encrypted="0">
        <![CDATA[
***********************************
*     Created by WB Importer      *
***********************************
.subckt LM5116_BUCK_BLOCK_WB_LM5116_BUCK_BLOCK_Rt 18 0
Rt 18 0 1910.0

.ends]]>
      </parameter>
      <image>
        <hotzone points="-10,60,10,-60"/>
        <shape type="line" width="1" color="#0000ff" points="0,60,0,40"/>
        <shape type="line" width="1" color="#0000ff" points="0,40,-10,30"/>
        <shape type="line" width="1" color="#0000ff" points="-10,30,10,10"/>
        <shape type="line" width="1" color="#0000ff" points="10,10,-10,-10"/>
        <shape type="line" width="1" color="#0000ff" points="-10,-10,10,-30"/>
        <shape type="line" width="1" color="#0000ff" points="10,-30,0,-40"/>
        <shape type="line" width="1" color="#0000ff" points="0,-40,0,-60"/>
        <legend text="1.91 kOhm" position="10,-8" orientation="0" fontname="Arial" fontsize="12" bold="0" italic="0" color="#229922"/>
        <pin position="0,60" dir="0" length="0" text="0"/>
        <pin position="0,-60" dir="0" length="0" text="18"/>
        <label text="Rt" position="898,850" textroot=" " orientation="0" color="#228822"/>
      </image>
    </component>
    <component type="Ground" typeid="2" position="810,1080" orientation="0" mirrored="0">
      <image>
        <label text="GND1" position="810,1080" textroot="GND1" orientation="0" color="#228822"/>
      </image>
    </component>
    <component type="Vcomp" typeid="4" position="1480,1110" orientation="0" mirrored="0">
      <image>
        <label text="Vcomp" position="1480,1080" textroot="Vcomp" orientation="0" color="#228822"/>
      </image>
    </component>
    <wire points="2930,1030,2950,1030" label=""/>
    <component type="Iin" typeid="34" position="280,200" mirrored="0" nodematch="0" macrotype="2" orientation="0">
      <parameter idx="0" encrypted="0">
        <![CDATA[***********************************
*     Created by WB Importer      *
***********************************
.SUBCKT Iin 1 2 
V_Iprobe 1 2 0.0
.ENDS
]]>
      </parameter>
      <parameter idx="1" name="VALUE" value="0"/>
      <image>
        <hotzone points="-30,-6,30,6"/>
        <shape type="line" width="Hair" color="#0000ff" points="-30,0,30,0"/>
        <shape type="line" width="1" color="#0000ff" points="-6,-4,-6,4"/>
        <shape type="line" width="1" color="#0000ff" points="-6,4,4,0"/>
        <shape type="line" width="1" color="#0000ff" points="4,0,-6,-4"/>
        <pin position="-30,0" dir="0" length="0" text="1"/>
        <pin position="30,0" dir="0" length="0" text="2"/>
        <label text="Iin" position="280,200" textroot=" " orientation="0" color="#228822"/>
      </image>
    </component>
    <component type="U1_LM5116MH/NOPB" typeid="57" position="1580,710" mirrored="0" nodematch="0" macrotype="2" orientation="0">
      <parameter idx="0" encrypted="0">
        <![CDATA[***
*$
*U1_LM5116MH/NOPB
*****************************************************************************
* (C) Copyright 2013 Texas Instruments Incorporated. All rights reserved.
*****************************************************************************
** This model is designed as an aid for customers of Texas Instruments.
** TI and its licensors and suppliers make no warranties, either expressed
** or implied, with respect to this model, including the warranties of
** merchantability or fitness for a particular purpose. The model is
** provided solely on an "as is" basis. The entire risk as to its quality
** and performance is with the customer
*****************************************************************************
*
** Released by: WEBENCH(R) Design Center, Texas Instruments Inc.
* Part: U1_LM5116MH/NOPB
* Model Type: Transient
* Simulator: TINA
* Model Version: Final 1.00
*
*****************************************************************************
*
* Updates:
*
* Final 1.00
* Release to Web.
*
***************************************************************************
.SUBCKT LM5116_BUCK_BLOCK_U1_WB_LM5116_ENCR VIN UVLO RT EN RAMP GND SS FB COMP OUT DEMB CS  CSG PGND LO VCC VCCX BST HO SW
.include isspice://../LM5116_BUCK_BLOCK.U1.WB_LM5116.enl
XCALL VIN UVLO RT EN RAMP GND SS FB COMP OUT DEMB CS  CSG PGND LO VCC VCCX BST HO SW LM5116_BUCK_BLOCK_U1_WB_LM5116 
.ENDS
]]>
      </parameter>
      <image>
        <hotzone points="-180,-240,180,240"/>
        <shape type="line" width="Hair" color="#0000ff" points="-180,-180,-160,-180"/>
        <shape type="line" width="Hair" color="#0000ff" points="-180,-60,-160,-60"/>
        <shape type="line" width="Hair" color="#0000ff" points="-180,0,-160,0"/>
        <shape type="line" width="Hair" color="#0000ff" points="-180,-120,-160,-120"/>
        <shape type="line" width="Hair" color="#0000ff" points="-180,60,-160,60"/>
        <shape type="line" width="Hair" color="#0000ff" points="-180,180,-160,180"/>
        <shape type="line" width="Hair" color="#0000ff" points="-180,120,-160,120"/>
        <shape type="line" width="Hair" color="#0000ff" points="60,240,60,220"/>
        <shape type="line" width="Hair" color="#0000ff" points="-40,240,-40,220"/>
        <shape type="line" width="Hair" color="#0000ff" points="180,180,160,180"/>
        <shape type="line" width="Hair" color="#0000ff" points="180,140,160,140"/>
        <shape type="line" width="Hair" color="#0000ff" points="180,80,160,80"/>
        <shape type="line" width="Hair" color="#0000ff" points="180,120,160,120"/>
        <shape type="line" width="Hair" color="#0000ff" points="-180,200,-160,200"/>
        <shape type="line" width="Hair" color="#0000ff" points="180,60,160,60"/>
        <shape type="line" width="Hair" color="#0000ff" points="180,-180,160,-180"/>
        <shape type="line" width="Hair" color="#0000ff" points="180,200,160,200"/>
        <shape type="line" width="Hair" color="#0000ff" points="180,-120,160,-120"/>
        <shape type="line" width="Hair" color="#0000ff" points="180,-60,160,-60"/>
        <shape type="line" width="Hair" color="#0000ff" points="180,0,160,0"/>
        <shape type="rectangle" points="-160,-220,160,220" color="4278190208" width="2" fill="4294967040"/>
        <shape type="line" width="1" color="#ff0000" points="-1,-49,-2,-44"/>
        <shape type="line" width="1" color="#ff0000" points="-1,-51,-1,-51"/>
        <shape type="polygon" width="1" color="#ff0000" fill="#ff0000" points="-7,-53,-7,-47,-11,-47,-11,-46,-10,-45,-9,-43,-8,-42,-7,-42,-6,-43,-5,-42,-4,-40,-1,-38,0,-38,0,-40,1,-42,3,-43,4,-44,4,-47,3,-48,3,-50,1,-50,0,-48,2,-48,1,-46,0,-46,-1,-44,0,-44,0,-43,-1,-42,-3,-42,-4,-43,-3,-46,-5,-46,-4,-48,-3,-48,-3,-48,-2,-50,-4,-50,-4,-52,-4,-53"/>
        <legend text="LM5116" position="-24,-18" orientation="0" fontname="Arial" fontsize="16" bold="0" italic="0" color="4278190208"/>
        <pin position="-180,0" dir="0" length="0" text="RT">
          <legend text="RT" position="-158,-10" orientation="0" fontname="Arial" fontsize="10" bold="0" italic="0" color="4286578688"/>
        </pin>
        <pin position="180,-120" dir="0" length="0" text="BST">
          <legend text="BST" position="130,-130" orientation="0" fontname="Arial" fontsize="10" bold="0" italic="0" color="4286578688"/>
        </pin>
        <pin position="-180,-180" dir="0" length="0" text="VIN">
          <legend text="VIN" position="-158,-190" orientation="0" fontname="Arial" fontsize="10" bold="0" italic="0" color="4286578688"/>
        </pin>
        <pin position="180,0" dir="0" length="0" text="SW">
          <legend text="SW" position="140,-10" orientation="0" fontname="Arial" fontsize="10" bold="0" italic="0" color="4286578688"/>
        </pin>
        <pin position="180,-60" dir="0" length="0" text="HO">
          <legend text="HO" position="140,-70" orientation="0" fontname="Arial" fontsize="10" bold="0" italic="0" color="4286578688"/>
        </pin>
        <pin position="-180,-120" dir="0" length="0" text="EN">
          <legend text="EN" position="-158,-130" orientation="0" fontname="Arial" fontsize="10" bold="0" italic="0" color="4286578688"/>
        </pin>
        <pin position="-180,60" dir="0" length="0" text="RAMP">
          <legend text="RAMP" position="-158,50" orientation="0" fontname="Arial" fontsize="10" bold="0" italic="0" color="4286578688"/>
        </pin>
        <pin position="-180,180" dir="0" length="0" text="GND">
          <legend text="GND" position="-158,170" orientation="0" fontname="Arial" fontsize="10" bold="0" italic="0" color="4286578688"/>
        </pin>
        <pin position="-180,120" dir="0" length="0" text="SS">
          <legend text="SS" position="-158,110" orientation="0" fontname="Arial" fontsize="10" bold="0" italic="0" color="4286578688"/>
        </pin>
        <pin position="60,240" dir="0" length="0" text="FB">
          <legend text="FB" position="50,200" orientation="0" fontname="Arial" fontsize="10" bold="0" italic="0" color="4286578688"/>
        </pin>
        <pin position="-40,240" dir="0" length="0" text="COMP">
          <legend text="COMP" position="-60,200" orientation="0" fontname="Arial" fontsize="10" bold="0" italic="0" color="4286578688"/>
        </pin>
        <pin position="180,180" dir="0" length="0" text="OUT">
          <legend text="OUT" position="130,170" orientation="0" fontname="Arial" fontsize="10" bold="0" italic="0" color="4286578688"/>
        </pin>
        <pin position="180,140" dir="0" length="0" text="DEMB">
          <legend text="DEMB" position="120,130" orientation="0" fontname="Arial" fontsize="10" bold="0" italic="0" color="4286578688"/>
        </pin>
        <pin position="180,80" dir="0" length="0" text="CS">
          <legend text="CS" position="140,70" orientation="0" fontname="Arial" fontsize="10" bold="0" italic="0" color="4286578688"/>
        </pin>
        <pin position="180,120" dir="0" length="0" text="CSG">
          <legend text="CSG" position="130,110" orientation="0" fontname="Arial" fontsize="10" bold="0" italic="0" color="4286578688"/>
        </pin>
        <pin position="-180,200" dir="0" length="0" text="PGND">
          <legend text="PGND" position="-158,190" orientation="0" fontname="Arial" fontsize="10" bold="0" italic="0" color="4286578688"/>
        </pin>
        <pin position="180,60" dir="0" length="0" text="LO">
          <legend text="LO" position="140,50" orientation="0" fontname="Arial" fontsize="10" bold="0" italic="0" color="4286578688"/>
        </pin>
        <pin position="180,-180" dir="0" length="0" text="VCC">
          <legend text="VCC" position="130,-190" orientation="0" fontname="Arial" fontsize="10" bold="0" italic="0" color="4286578688"/>
        </pin>
        <pin position="180,200" dir="0" length="0" text="VCCX">
          <legend text="VCCX" position="120,190" orientation="0" fontname="Arial" fontsize="10" bold="0" italic="0" color="4286578688"/>
        </pin>
        <pin position="-180,-60" dir="0" length="0" text="UVLO">
          <legend text="UVLO" position="-158,-70" orientation="0" fontname="Arial" fontsize="10" bold="0" italic="0" color="4286578688"/>
        </pin>
        <label text="U1_LM5116MH/NOPB" position="1400,450" textroot="U1_LM5116MH/NOPB" orientation="0" color="#228822"/>
      </image>
    </component>
    <component type="Cramp" mirrored="0" typeid="57" nodematch="0" macrotype="2" position="1080,890" orientation="0">
      <parameter idx="0" encrypted="0">
        <![CDATA[
***********************************
*     Created by WB Importer      *
***********************************
.subckt LM5116_BUCK_BLOCK_WB_LM5116_BUCK_BLOCK_Cramp 3 0
Cramp 3 0 1.0E-9

.ends]]>
      </parameter>
      <image>
        <hotzone points="-24,60,24,-60"/>
        <shape type="line" width="Hair" color="#0000ff" points="0,-60,0,-40"/>
        <shape type="line" width="Hair" color="#0000ff" points="0,60,0,40"/>
        <shape type="line" width="1" color="#0000ff" points="24,-6,-24,-6"/>
        <shape type="line" width="1" color="#0000ff" points="0,40,0,6"/>
        <shape type="line" width="1" color="#0000ff" points="0,-6,0,-40"/>
        <shape type="line" width="1" color="#0000ff" points="24,6,-24,6"/>
        <legend text="1 nF" position="8,18" orientation="0" fontname="Arial" fontsize="12" bold="0" italic="0" color="#229922"/>
        <legend text="" position="8,32" orientation="0" fontname="Arial" fontsize="12" bold="0" italic="0" color="#229922"/>
        <legend text="" position="8,48" orientation="0" fontname="Arial" fontsize="12" bold="0" italic="0" color="#229922"/>
        <pin position="0,60" dir="0" length="0" text="0"/>
        <pin position="0,-60" dir="0" length="0" text="3"/>
        <label text="Cramp" position="1086,868" textroot=" " orientation="0" color="#228822"/>
      </image>
    </component>
    <component type="Icin" typeid="34" position="410,300" mirrored="0" nodematch="0" macrotype="2" orientation="0">
      <parameter idx="0" encrypted="0">
        <![CDATA[***********************************
*     Created by WB Importer      *
***********************************
.SUBCKT Icin 1 2 
V_Iprobe 1 2 0.0
.ENDS
]]>
      </parameter>
      <parameter idx="1" name="VALUE" value="0"/>
      <image>
        <hotzone points="6,-30,-6,30"/>
        <shape type="line" width="Hair" color="#0000ff" points="0,-30,0,30"/>
        <shape type="line" width="1" color="#0000ff" points="4,-6,-4,-6"/>
        <shape type="line" width="1" color="#0000ff" points="-4,-6,0,4"/>
        <shape type="line" width="1" color="#0000ff" points="0,4,4,-6"/>
        <pin position="0,-30" dir="0" length="0" text="1"/>
        <pin position="0,30" dir="0" length="0" text="2"/>
        <label text="Icin" position="410,300" textroot=" " orientation="0" color="#228822"/>
      </image>
    </component>
    <component type="Ground" typeid="2" position="2180,920" orientation="0" mirrored="0">
      <image>
        <label text="GND1" position="2180,920" textroot="GND1" orientation="0" color="#228822"/>
      </image>
    </component>
    <component type="Ruv1" mirrored="0" typeid="57" nodematch="0" macrotype="2" position="730,880" orientation="0">
      <parameter idx="0" encrypted="0">
        <![CDATA[
***********************************
*     Created by WB Importer      *
***********************************
.subckt LM5116_BUCK_BLOCK_WB_LM5116_BUCK_BLOCK_Ruv1 19 0
Ruv1 19 0 7320.0

.ends]]>
      </parameter>
      <image>
        <hotzone points="-10,60,10,-60"/>
        <shape type="line" width="1" color="#0000ff" points="0,60,0,40"/>
        <shape type="line" width="1" color="#0000ff" points="0,40,-10,30"/>
        <shape type="line" width="1" color="#0000ff" points="-10,30,10,10"/>
        <shape type="line" width="1" color="#0000ff" points="10,10,-10,-10"/>
        <shape type="line" width="1" color="#0000ff" points="-10,-10,10,-30"/>
        <shape type="line" width="1" color="#0000ff" points="10,-30,0,-40"/>
        <shape type="line" width="1" color="#0000ff" points="0,-40,0,-60"/>
        <legend text="7.32 kOhm" position="10,-8" orientation="0" fontname="Arial" fontsize="12" bold="0" italic="0" color="#229922"/>
        <pin position="0,60" dir="0" length="0" text="0"/>
        <pin position="0,-60" dir="0" length="0" text="19"/>
        <label text="Ruv1" position="748,850" textroot=" " orientation="0" color="#228822"/>
      </image>
    </component>
    <component type="L1" typeid="57" position="2340,590" mirrored="0" nodematch="0" macrotype="2" orientation="0">
      <parameter idx="0" encrypted="0">
        <![CDATA[
***********************************
*     Created by WB Importer      *
***********************************
.SUBCKT LM5116_BUCK_BLOCK_L1_WB_INDUCTOR 1 2
*{ L = 5.6E-5 DCR = 0.0578 }
* PARAMETERS: L INDUCTANCE IN HENRIES, DCR DC SERIES RESISTANCE IN OHMS

L1 2 3 5.6E-5 IC = 0
RDCR 3 1 0.0578

.ENDS]]>
      </parameter>
      <image>
        <hotzone points="-60,-10,60,10"/>
        <shape type="line" width="Hair" color="#0000ff" points="40,0,60,0"/>
        <shape type="line" width="Hair" color="#0000ff" points="-40,0,-60,0"/>
        <legend text="56 uH" position="-30,8" orientation="0" fontname="Arial" fontsize="12" bold="0" italic="0" color="#229922"/>
        <legend text="57.8 mOhm" position="-30,22" orientation="0" fontname="Arial" fontsize="12" bold="0" italic="0" color="#229922"/>
        <shape type="arc" color="#0000ff" width="2" points="-40,-10,-20,10,90,90"/>
        <shape type="arc" color="#0000ff" width="2" points="-40,-10,-20,10,0,90"/>
        <shape type="arc" color="#0000ff" width="2" points="-20,-10,0,10,90,90"/>
        <shape type="arc" color="#0000ff" width="2" points="-20,-10,0,10,0,90"/>
        <shape type="arc" color="#0000ff" width="2" points="0,-10,20,10,90,90"/>
        <shape type="arc" color="#0000ff" width="2" points="0,-10,20,10,0,90"/>
        <shape type="arc" color="#0000ff" width="2" points="20,-10,40,10,90,90"/>
        <shape type="arc" color="#0000ff" width="2" points="20,-10,40,10,0,90"/>
        <pin position="-60,0" dir="0" length="0" text="1"/>
        <pin position="60,0" dir="0" length="0" text="2"/>
        <label text="L1" position="2306,560" textroot=" " orientation="0" color="#228822"/>
      </image>
    </component>
    <component type="Iinductor" typeid="34" position="2250,590" mirrored="0" nodematch="0" macrotype="2" orientation="0">
      <parameter idx="0" encrypted="0">
        <![CDATA[***********************************
*     Created by WB Importer      *
***********************************
.SUBCKT Iinductor 1 2 
V_Iprobe 1 2 0.0
.ENDS
]]>
      </parameter>
      <parameter idx="1" name="VALUE" value="0"/>
      <image>
        <hotzone points="-30,-6,30,6"/>
        <shape type="line" width="Hair" color="#0000ff" points="-30,0,30,0"/>
        <shape type="line" width="1" color="#0000ff" points="-6,-4,-6,4"/>
        <shape type="line" width="1" color="#0000ff" points="-6,4,4,0"/>
        <shape type="line" width="1" color="#0000ff" points="4,0,-6,-4"/>
        <pin position="-30,0" dir="0" length="0" text="1"/>
        <pin position="30,0" dir="0" length="0" text="2"/>
        <label text="Iinductor" position="2250,590" textroot=" " orientation="0" color="#228822"/>
      </image>
    </component>
    <component type="Ccomp" mirrored="0" typeid="57" nodematch="0" macrotype="2" position="1680,1190" orientation="0">
      <parameter idx="0" encrypted="0">
        <![CDATA[
***********************************
*     Created by WB Importer      *
***********************************
.subckt LM5116_BUCK_BLOCK_WB_LM5116_BUCK_BLOCK_Ccomp 5 10
Ccomp 5 10 1.5E-10

.ends]]>
      </parameter>
      <image>
        <hotzone points="-60,-24,60,24"/>
        <shape type="line" width="Hair" color="#0000ff" points="60,0,40,0"/>
        <shape type="line" width="Hair" color="#0000ff" points="-60,0,-40,0"/>
        <shape type="line" width="1" color="#0000ff" points="6,24,6,-24"/>
        <shape type="line" width="1" color="#0000ff" points="-40,0,-6,0"/>
        <shape type="line" width="1" color="#0000ff" points="6,0,40,0"/>
        <shape type="line" width="1" color="#0000ff" points="-6,24,-6,-24"/>
        <legend text="0.15 nF" position="18,10" orientation="0" fontname="Arial" fontsize="12" bold="0" italic="0" color="#229922"/>
        <legend text="" position="18,26" orientation="0" fontname="Arial" fontsize="12" bold="0" italic="0" color="#229922"/>
        <legend text="" position="18,40" orientation="0" fontname="Arial" fontsize="12" bold="0" italic="0" color="#229922"/>
        <pin position="-60,0" dir="0" length="0" text="10"/>
        <pin position="60,0" dir="0" length="0" text="5"/>
        <label text="Ccomp" position="1690,1172" textroot=" " orientation="0" color="#228822"/>
      </image>
    </component>
    <wire points="2930,590,2950,590" label=""/>
    <component type="Renable" mirrored="0" typeid="57" nodematch="0" macrotype="2" position="1120,370" orientation="0">
      <parameter idx="0" encrypted="0">
        <![CDATA[
***********************************
*     Created by WB Importer      *
***********************************
.subckt LM5116_BUCK_BLOCK_WB_LM5116_BUCK_BLOCK_Renable 20 6
Renable 20 6 1000000.0

.ends]]>
      </parameter>
      <image>
        <hotzone points="-10,60,10,-60"/>
        <shape type="line" width="1" color="#0000ff" points="0,60,0,40"/>
        <shape type="line" width="1" color="#0000ff" points="0,40,-10,30"/>
        <shape type="line" width="1" color="#0000ff" points="-10,30,10,10"/>
        <shape type="line" width="1" color="#0000ff" points="10,10,-10,-10"/>
        <shape type="line" width="1" color="#0000ff" points="-10,-10,10,-30"/>
        <shape type="line" width="1" color="#0000ff" points="10,-30,0,-40"/>
        <shape type="line" width="1" color="#0000ff" points="0,-40,0,-60"/>
        <legend text="1 MOhm" position="10,-8" orientation="0" fontname="Arial" fontsize="12" bold="0" italic="0" color="#229922"/>
        <pin position="0,60" dir="0" length="0" text="6"/>
        <pin position="0,-60" dir="0" length="0" text="20"/>
        <label text="Renable" position="1138,340" textroot=" " orientation="0" color="#228822"/>
      </image>
    </component>
    <component type="Cvcc" mirrored="0" typeid="57" nodematch="0" macrotype="2" position="2060,490" orientation="0">
      <parameter idx="0" encrypted="0">
        <![CDATA[
***********************************
*     Created by WB Importer      *
***********************************
.subckt LM5116_BUCK_BLOCK_WB_LM5116_BUCK_BLOCK_Cvcc 16 0
Cvcc 16 0 1.0E-6 IC=7.7

.ends]]>
      </parameter>
      <image>
        <hotzone points="-24,60,24,-60"/>
        <shape type="line" width="Hair" color="#0000ff" points="0,-60,0,-40"/>
        <shape type="line" width="Hair" color="#0000ff" points="0,60,0,40"/>
        <shape type="line" width="1" color="#0000ff" points="24,-6,-24,-6"/>
        <shape type="line" width="1" color="#0000ff" points="0,40,0,6"/>
        <shape type="line" width="1" color="#0000ff" points="0,-6,0,-40"/>